[General]
**.teachersNumber = 3
**.uniformDistribution = ${true, false}
sim-time-limit = 60s

[Config case1]
network = ParallelExamSession
description = "One student per teacher"

[Config case2]
network = PipelinedExamSession
description = "Pipelined"